46
Lattice="10.355 0.0 0.0 0.0 10.355 0.0 0.0 0.0 10.355" Properties=species:S:1:pos:R:3 pbc="T T T"
Si       1.90221350       1.90221350       1.90221350
Si       1.90221350       1.90221350       8.45278650
Si       1.90221350       8.45278650       1.90221350
Si       1.90221350       8.45278650       8.45278650
Si       3.27528650       3.27528650       3.27528650
Si       3.27528650       3.27528650       7.07971350
Si       3.27528650       7.07971350       3.27528650
Si       3.27528650       7.07971350       7.07971350
Si       7.07971350       3.27528650       3.27528650
Si       7.07971350       3.27528650       7.07971350
Si       7.07971350       7.07971350       3.27528650
Si       7.07971350       7.07971350       7.07971350
Si       8.45278650       1.90221350       1.90221350
Si       8.45278650       1.90221350       8.45278650
Si       8.45278650       8.45278650       1.90221350
Si       8.45278650       8.45278650       8.45278650
Si       0.00000000       1.21360600       3.18623350
Si       0.00000000       1.21360600       7.16876650
Si       0.00000000       9.14139400       3.18623350
Si       0.00000000       9.14139400       7.16876650
Si       1.21360600       3.18623350       0.00000000
Si       1.21360600       7.16876650       0.00000000
Si       1.99126650       3.96389400       5.17750000
Si       1.99126650       6.39110600       5.17750000
Si       3.18623350       0.00000000       1.21360600
Si       3.18623350       0.00000000       9.14139400
Si       3.96389400       5.17750000       1.99126650
Si       3.96389400       5.17750000       8.36373350
Si       5.17750000       1.99126650       3.96389400
Si       5.17750000       1.99126650       6.39110600
Si       5.17750000       8.36373350       3.96389400
Si       5.17750000       8.36373350       6.39110600
Si       6.39110600       5.17750000       1.99126650
Si       6.39110600       5.17750000       8.36373350
Si       7.16876650       0.00000000       1.21360600
Si       7.16876650       0.00000000       9.14139400
Si       8.36373350       3.96389400       5.17750000
Si       8.36373350       6.39110600       5.17750000
Si       9.14139400       3.18623350       0.00000000
Si       9.14139400       7.16876650       0.00000000
Si       0.00000000       2.58875000       5.17750000
Si       0.00000000       7.76625000       5.17750000
Si       2.58875000       5.17750000       0.00000000
Si       5.17750000       0.00000000       2.58875000
Si       5.17750000       0.00000000       7.76625000
Si       7.76625000       5.17750000       0.00000000
