156
Lattice="12.0 0.0 0.0 0.0 12.0 0.0 0.0 0.0 25.76" Properties=species:S:1:pos:R:3 pbc="F F F"
B        0.00000000       0.00000000       5.00000000
N        1.25500000       0.72457459       5.00000000
N        0.00000000       2.89829835       5.00000000
B        2.51000000       0.00000000       5.00000000
N        3.76500000       0.72457459       5.00000000
B        1.25500000       2.17372376       5.00000000
N        2.51000000       2.89829835       5.00000000
B        0.00000000       4.34744753       5.00000000
N        1.25500000       5.07202211       5.00000000
N        0.00000000       7.24574588       5.00000000
B        5.02000000       0.00000000       5.00000000
N        6.27500000       0.72457459       5.00000000
B        3.76500000       2.17372376       5.00000000
N        5.02000000       2.89829835       5.00000000
B        2.51000000       4.34744753       5.00000000
N        3.76500000       5.07202211       5.00000000
B        1.25500000       6.52117129       5.00000000
N        2.51000000       7.24574588       5.00000000
B        0.00000000       8.69489505       5.00000000
N        1.25500000       9.41946964       5.00000000
B        7.53000000       0.00000000       5.00000000
N        8.78500000       0.72457459       5.00000000
B        6.27500000       2.17372376       5.00000000
N        7.53000000       2.89829835       5.00000000
B        5.02000000       4.34744753       5.00000000
N        6.27500000       5.07202211       5.00000000
B        3.76500000       6.52117129       5.00000000
N        5.02000000       7.24574588       5.00000000
B        2.51000000       8.69489505       5.00000000
N        3.76500000       9.41946964       5.00000000
B       10.04000000       0.00000000       5.00000000
N       11.29500000       0.72457459       5.00000000
B        8.78500000       2.17372376       5.00000000
N       10.04000000       2.89829835       5.00000000
B        7.53000000       4.34744753       5.00000000
N        8.78500000       5.07202211       5.00000000
B        6.27500000       6.52117129       5.00000000
N        7.53000000       7.24574588       5.00000000
B        5.02000000       8.69489505       5.00000000
N        6.27500000       9.41946964       5.00000000
B       11.29500000       2.17372376       5.00000000
B       10.04000000       4.34744753       5.00000000
N       11.29500000       5.07202211       5.00000000
B        8.78500000       6.52117129       5.00000000
N       10.04000000       7.24574588       5.00000000
B        7.53000000       8.69489505       5.00000000
N        8.78500000       9.41946964       5.00000000
B       11.29500000       6.52117129       5.00000000
B       10.04000000       8.69489505       5.00000000
N       11.29500000       9.41946964       5.00000000
N        0.00000000      11.59319341       5.00000000
B        1.25500000      10.86861882       5.00000000
N        2.51000000      11.59319341       5.00000000
B        3.76500000      10.86861882       5.00000000
N        5.02000000      11.59319341       5.00000000
B        6.27500000      10.86861882       5.00000000
N        7.53000000      11.59319341       5.00000000
B        8.78500000      10.86861882       5.00000000
N       10.04000000      11.59319341       5.00000000
B       11.29500000      10.86861882       5.00000000
Se       0.00000000       0.00000000       8.94000000
Pb       2.20000000       0.00000000       8.94000000
Se       2.20000000       2.20000000       8.94000000
Pb       0.00000000       2.20000000       8.94000000
Se       4.40000000       0.00000000       8.94000000
Pb       6.60000000       0.00000000       8.94000000
Se       6.60000000       2.20000000       8.94000000
Pb       4.40000000       2.20000000       8.94000000
Se       8.80000000       0.00000000       8.94000000
Pb      11.00000000       0.00000000       8.94000000
Se      11.00000000       2.20000000       8.94000000
Pb       8.80000000       2.20000000       8.94000000
Se       0.00000000       4.40000000       8.94000000
Pb       2.20000000       4.40000000       8.94000000
Se       2.20000000       6.60000000       8.94000000
Pb       0.00000000       6.60000000       8.94000000
Se       4.40000000       4.40000000       8.94000000
Pb       6.60000000       4.40000000       8.94000000
Se       6.60000000       6.60000000       8.94000000
Pb       4.40000000       6.60000000       8.94000000
Se       8.80000000       4.40000000       8.94000000
Pb      11.00000000       4.40000000       8.94000000
Se      11.00000000       6.60000000       8.94000000
Pb       8.80000000       6.60000000       8.94000000
Se       0.00000000       8.80000000       8.94000000
Pb       2.20000000       8.80000000       8.94000000
Se       2.20000000      11.00000000       8.94000000
Pb       0.00000000      11.00000000       8.94000000
Se       4.40000000       8.80000000       8.94000000
Pb       6.60000000       8.80000000       8.94000000
Se       6.60000000      11.00000000       8.94000000
Pb       4.40000000      11.00000000       8.94000000
Se       8.80000000       8.80000000       8.94000000
Pb      11.00000000       8.80000000       8.94000000
Se      11.00000000      11.00000000       8.94000000
Pb       8.80000000      11.00000000       8.94000000
B        0.00000000       0.00000000      12.88000000
N        1.25500000       0.72457459      12.88000000
N        0.00000000       2.89829835      12.88000000
B        2.51000000       0.00000000      12.88000000
N        3.76500000       0.72457459      12.88000000
B        1.25500000       2.17372376      12.88000000
N        2.51000000       2.89829835      12.88000000
B        0.00000000       4.34744753      12.88000000
N        1.25500000       5.07202211      12.88000000
N        0.00000000       7.24574588      12.88000000
B        5.02000000       0.00000000      12.88000000
N        6.27500000       0.72457459      12.88000000
B        3.76500000       2.17372376      12.88000000
N        5.02000000       2.89829835      12.88000000
B        2.51000000       4.34744753      12.88000000
N        3.76500000       5.07202211      12.88000000
B        1.25500000       6.52117129      12.88000000
N        2.51000000       7.24574588      12.88000000
B        0.00000000       8.69489505      12.88000000
N        1.25500000       9.41946964      12.88000000
B        7.53000000       0.00000000      12.88000000
N        8.78500000       0.72457459      12.88000000
B        6.27500000       2.17372376      12.88000000
N        7.53000000       2.89829835      12.88000000
B        5.02000000       4.34744753      12.88000000
N        6.27500000       5.07202211      12.88000000
B        3.76500000       6.52117129      12.88000000
N        5.02000000       7.24574588      12.88000000
B        2.51000000       8.69489505      12.88000000
N        3.76500000       9.41946964      12.88000000
B       10.04000000       0.00000000      12.88000000
N       11.29500000       0.72457459      12.88000000
B        8.78500000       2.17372376      12.88000000
N       10.04000000       2.89829835      12.88000000
B        7.53000000       4.34744753      12.88000000
N        8.78500000       5.07202211      12.88000000
B        6.27500000       6.52117129      12.88000000
N        7.53000000       7.24574588      12.88000000
B        5.02000000       8.69489505      12.88000000
N        6.27500000       9.41946964      12.88000000
B       11.29500000       2.17372376      12.88000000
B       10.04000000       4.34744753      12.88000000
N       11.29500000       5.07202211      12.88000000
B        8.78500000       6.52117129      12.88000000
N       10.04000000       7.24574588      12.88000000
B        7.53000000       8.69489505      12.88000000
N        8.78500000       9.41946964      12.88000000
B       11.29500000       6.52117129      12.88000000
B       10.04000000       8.69489505      12.88000000
N       11.29500000       9.41946964      12.88000000
N        0.00000000      11.59319341      12.88000000
B        1.25500000      10.86861882      12.88000000
N        2.51000000      11.59319341      12.88000000
B        3.76500000      10.86861882      12.88000000
N        5.02000000      11.59319341      12.88000000
B        6.27500000      10.86861882      12.88000000
N        7.53000000      11.59319341      12.88000000
B        8.78500000      10.86861882      12.88000000
N       10.04000000      11.59319341      12.88000000
B       11.29500000      10.86861882      12.88000000
